
BBcorina  07172010053D 1   1.00000     0.00000 
CORINA 4.1.0 0026  01.08.2017
 42 44  0  0  0  0  0  0  0  0999 V2000
   -2.8306   -1.5488    2.6428 C   0  0  0  1  0  0  0  0  0  0  0  0
   -2.4744   -2.3670    1.4000 C   0  0  0  1  0  0  0  0  0  0  0  0
   -1.1629   -1.9415    0.8930 N   0  0  0  1  0  0  0  0  0  0  0  0
   -1.2930   -0.7746    0.0102 C   0  0  0  1  0  0  0  0  0  0  0  0
   -1.6168   -1.2430   -1.4098 C   0  0  0  1  0  0  0  0  0  0  0  0
    0.0021   -0.0041    0.0020 C   0  0  0  1  0  0  0  0  0  0  0  0
    1.2079   -0.6801   -0.0136 C   0  0  0  1  0  0  0  0  0  0  0  0
    2.3980    0.0241   -0.0212 C   0  0  0  1  0  0  0  0  0  0  0  0
    2.3846    1.4052   -0.0136 C   0  0  0  1  0  0  0  0  0  0  0  0
    1.1757    2.0861    0.0020 C   0  0  0  1  0  0  0  0  0  0  0  0
    1.1599    3.4450    0.0090 O   0  0  0  1  0  0  0  0  0  0  0  0
   -0.0167    1.3774    0.0096 C   0  0  0  1  0  0  0  0  0  0  0  0
   -2.4237   -3.8297    1.7591 C   0  0  0  1  0  0  0  0  0  0  0  0
   -1.4721   -4.4105    2.4155 N   0  0  0  1  0  0  0  0  0  0  0  0
   -1.5800   -5.6479    2.6416 N   0  0  0  1  0  0  0  0  0  0  0  0
   -2.6522   -6.2290    2.1740 C   0  0  0  1  0  0  0  0  0  0  0  0
   -3.6132   -4.9951    1.3581 S   0  0  0  1  0  0  0  0  0  0  0  0
   -2.9978   -7.6612    2.3048 C   0  0  0  1  0  0  0  0  0  0  0  0
   -2.1401   -8.5296    2.9804 C   0  0  0  1  0  0  0  0  0  0  0  0
   -2.4672   -9.8650    3.1002 C   0  0  0  1  0  0  0  0  0  0  0  0
   -3.6432  -10.3442    2.5527 C   0  0  0  1  0  0  0  0  0  0  0  0
   -4.5003   -9.4876    1.8801 C   0  0  0  1  0  0  0  0  0  0  0  0
   -5.6478   -9.9623    1.3480 F   0  0  0  1  0  0  0  0  0  0  0  0
   -4.1856   -8.1477    1.7581 C   0  0  0  1  0  0  0  0  0  0  0  0
   -2.5604   -2.1097    3.5375 H   0  0  0  1  0  0  0  0  0  0  0  0
   -3.9018   -1.3475    2.6502 H   0  0  0  1  0  0  0  0  0  0  0  0
   -2.2834   -0.6063    2.6261 H   0  0  0  1  0  0  0  0  0  0  0  0
   -3.2369   -2.2076    0.6375 H   0  0  0  1  0  0  0  0  0  0  0  0
   -0.7216   -2.7474    0.3447 H   0  0  0  1  0  0  0  0  0  0  0  0
   -2.0963   -0.1286    0.3645 H   0  0  0  1  0  0  0  0  0  0  0  0
   -2.3660   -0.5839   -1.8484 H   0  0  0  1  0  0  0  0  0  0  0  0
   -2.0038   -2.2614   -1.3768 H   0  0  0  1  0  0  0  0  0  0  0  0
   -0.7112   -1.2173   -2.0159 H   0  0  0  1  0  0  0  0  0  0  0  0
    1.2206   -1.7700   -0.0199 H   0  0  0  1  0  0  0  0  0  0  0  0
    3.3474   -0.5112   -0.0332 H   0  0  0  1  0  0  0  0  0  0  0  0
    3.3229    1.9598   -0.0199 H   0  0  0  1  0  0  0  0  0  0  0  0
    2.1441    3.8067    0.0650 H   0  0  0  1  0  0  0  0  0  0  0  0
   -0.9677    1.9099    0.0216 H   0  0  0  1  0  0  0  0  0  0  0  0
   -1.2129   -8.1539    3.4131 H   0  0  0  1  0  0  0  0  0  0  0  0
   -1.7969  -10.5437    3.6277 H   0  0  0  1  0  0  0  0  0  0  0  0
   -3.8970  -11.3997    2.6505 H   0  0  0  1  0  0  0  0  0  0  0  0
   -4.8636   -7.4725    1.2361 H   0  0  0  1  0  0  0  0  0  0  0  0
  1  2  1  0  0  0  0
  1 25  1  0  0  0  0
  1 26  1  0  0  0  0
  1 27  1  0  0  0  0
  2  3  1  0  0  0  0
  2 13  1  0  0  0  0
  2 28  1  0  0  0  0
  3  4  1  0  0  0  0
  3 29  1  0  0  0  0
  4  5  1  0  0  0  0
  4  6  1  0  0  0  0
  4 30  1  0  0  0  0
  5 31  1  0  0  0  0
  5 32  1  0  0  0  0
  5 33  1  0  0  0  0
  6  7  2  0  0  0  0
  6 12  1  0  0  0  0
  7  8  1  0  0  0  0
  7 34  1  0  0  0  0
  8  9  2  0  0  0  0
  8 35  1  0  0  0  0
  9 10  1  0  0  0  0
  9 36  1  0  0  0  0
 10 11  1  0  0  0  0
 10 12  2  0  0  0  0
 11 37  1  0  0  0  0
 12 38  1  0  0  0  0
 13 14  2  0  0  0  0
 13 17  1  0  0  0  0
 14 15  1  0  0  0  0
 15 16  2  0  0  0  0
 16 17  1  0  0  0  0
 16 18  1  0  0  0  0
 18 19  2  0  0  0  0
 18 24  1  0  0  0  0
 19 20  1  0  0  0  0
 19 39  1  0  0  0  0
 20 21  2  0  0  0  0
 20 40  1  0  0  0  0
 21 22  1  0  0  0  0
 21 41  1  0  0  0  0
 22 23  1  0  0  0  0
 22 24  2  0  0  0  0
 24 42  1  0  0  0  0
M  END
> <Catalog ID>
Z1997463530

> <ClogP>
2.118

> <HBD>
2

> <Index>
906

> <MW (desalted)>
343.418

> <PlateID>
1046298-R-CC-012

> <RotBonds>
5

> <TPSA>
58.040

> <Well>
E03

$$$$

BBcorina  07172010053D 1   1.00000     0.00000 
CORINA 4.1.0 0026  01.08.2017
 49 51  0  0  0  0  0  0  0  0999 V2000
    2.4163   -4.0626   -3.7838 O   0  0  0  1  0  0  0  0  0  0  0  0
    1.1889   -4.4877   -3.1882 C   0  0  0  1  0  0  0  0  0  0  0  0
    1.1749   -4.0955   -1.7093 C   0  0  0  1  0  0  0  0  0  0  0  0
    1.1767   -2.6313   -1.5910 N   0  0  0  1  0  0  0  0  0  0  0  0
    1.1634   -2.2170   -0.1817 C   0  0  0  1  0  0  0  0  0  0  0  0
    1.1656   -0.7122   -0.1005 C   0  0  0  1  0  0  0  0  0  0  0  0
    2.3642   -0.0250   -0.0507 C   0  0  0  1  0  0  0  0  0  0  0  0
    2.3698    1.3559    0.0243 C   0  0  0  1  0  0  0  0  0  0  0  0
    1.1772    2.0522    0.0489 C   0  0  0  1  0  0  0  0  0  0  0  0
   -0.0273    1.3648   -0.0004 C   0  0  0  1  0  0  0  0  0  0  0  0
   -1.2020    2.0477    0.0189 O   0  0  0  1  0  0  0  0  0  0  0  0
   -2.0012    1.9115    1.1093 C   0  0  0  1  0  0  0  0  0  0  0  0
   -1.5580    1.1932    2.2104 C   0  0  0  1  0  0  0  0  0  0  0  0
   -2.3702    1.0615    3.3203 C   0  0  0  1  0  0  0  0  0  0  0  0
   -3.6284    1.6343    3.3295 C   0  0  0  1  0  0  0  0  0  0  0  0
   -4.0749    2.3460    2.2310 C   0  0  0  1  0  0  0  0  0  0  0  0
   -3.2645    2.4859    1.1213 C   0  0  0  1  0  0  0  0  0  0  0  0
   -5.4470    2.9690    2.2445 C   0  0  0  1  0  0  0  0  0  0  0  0
   -6.3787    2.0560    1.7390 F   0  0  0  1  0  0  0  0  0  0  0  0
   -5.7919    3.3088    3.5570 F   0  0  0  1  0  0  0  0  0  0  0  0
   -5.4441    4.1206    1.4501 F   0  0  0  1  0  0  0  0  0  0  0  0
   -0.0301   -0.0206   -0.0752 C   0  0  0  1  0  0  0  0  0  0  0  0
    1.0568   -6.0084   -3.3163 C   0  0  0  1  0  0  0  0  0  0  0  0
    0.9926   -6.3841   -4.7990 C   0  0  0  1  0  0  0  0  0  0  0  0
   -0.1057   -5.7070   -5.4134 O   0  0  0  1  0  0  0  0  0  0  0  0
   -0.0128   -4.2818   -5.3661 C   0  0  0  1  0  0  0  0  0  0  0  0
    0.0124   -3.8198   -3.9066 C   0  0  0  1  0  0  0  0  0  0  0  0
    3.2013   -4.6693   -3.4400 H   0  0  0  1  0  0  0  0  0  0  0  0
    2.0593   -4.5007   -1.2177 H   0  0  0  1  0  0  0  0  0  0  0  0
    0.2792   -4.4971   -1.2355 H   0  0  0  1  0  0  0  0  0  0  0  0
    0.3085   -2.2399   -2.0789 H   0  0  0  1  0  0  0  0  0  0  0  0
    2.0478   -2.6091    0.3205 H   0  0  0  1  0  0  0  0  0  0  0  0
    0.2676   -2.6056    0.3027 H   0  0  0  1  0  0  0  0  0  0  0  0
    3.3065   -0.5726   -0.0706 H   0  0  0  1  0  0  0  0  0  0  0  0
    3.3162    1.8952    0.0640 H   0  0  0  1  0  0  0  0  0  0  0  0
    1.1821    3.1406    0.1070 H   0  0  0  1  0  0  0  0  0  0  0  0
   -0.5699    0.7332    2.1999 H   0  0  0  1  0  0  0  0  0  0  0  0
   -2.0186    0.5055    4.1894 H   0  0  0  1  0  0  0  0  0  0  0  0
   -4.2696    1.5248    4.2041 H   0  0  0  1  0  0  0  0  0  0  0  0
   -3.6169    3.0469    0.2558 H   0  0  0  1  0  0  0  0  0  0  0  0
   -0.9748   -0.5629   -0.1140 H   0  0  0  1  0  0  0  0  0  0  0  0
    0.1460   -6.3386   -2.8168 H   0  0  0  1  0  0  0  0  0  0  0  0
    1.9195   -6.4894   -2.8553 H   0  0  0  1  0  0  0  0  0  0  0  0
    0.8555   -7.4611   -4.8954 H   0  0  0  1  0  0  0  0  0  0  0  0
    1.9208   -6.0902   -5.2890 H   0  0  0  1  0  0  0  0  0  0  0  0
   -0.8746   -3.8448   -5.8705 H   0  0  0  1  0  0  0  0  0  0  0  0
    0.9019   -3.9608   -5.8645 H   0  0  0  1  0  0  0  0  0  0  0  0
    0.1295   -2.7368   -3.8690 H   0  0  0  1  0  0  0  0  0  0  0  0
   -0.9205   -4.1021   -3.4186 H   0  0  0  1  0  0  0  0  0  0  0  0
  1  2  1  0  0  0  0
  1 28  1  0  0  0  0
  2  3  1  0  0  0  0
  2 23  1  0  0  0  0
  2 27  1  0  0  0  0
  3  4  1  0  0  0  0
  3 29  1  0  0  0  0
  3 30  1  0  0  0  0
  4  5  1  0  0  0  0
  4 31  1  0  0  0  0
  5  6  1  0  0  0  0
  5 32  1  0  0  0  0
  5 33  1  0  0  0  0
  6  7  2  0  0  0  0
  6 22  1  0  0  0  0
  7  8  1  0  0  0  0
  7 34  1  0  0  0  0
  8  9  2  0  0  0  0
  8 35  1  0  0  0  0
  9 10  1  0  0  0  0
  9 36  1  0  0  0  0
 10 11  1  0  0  0  0
 10 22  2  0  0  0  0
 11 12  1  0  0  0  0
 12 13  2  0  0  0  0
 12 17  1  0  0  0  0
 13 14  1  0  0  0  0
 13 37  1  0  0  0  0
 14 15  2  0  0  0  0
 14 38  1  0  0  0  0
 15 16  1  0  0  0  0
 15 39  1  0  0  0  0
 16 17  2  0  0  0  0
 16 18  1  0  0  0  0
 17 40  1  0  0  0  0
 18 19  1  0  0  0  0
 18 20  1  0  0  0  0
 18 21  1  0  0  0  0
 22 41  1  0  0  0  0
 23 24  1  0  0  0  0
 23 42  1  0  0  0  0
 23 43  1  0  0  0  0
 24 25  1  0  0  0  0
 24 44  1  0  0  0  0
 24 45  1  0  0  0  0
 25 26  1  0  0  0  0
 26 27  1  0  0  0  0
 26 46  1  0  0  0  0
 26 47  1  0  0  0  0
 27 48  1  0  0  0  0
 27 49  1  0  0  0  0
M  END
> <Catalog ID>
Z1118522256

> <ClogP>
3.521

> <HBD>
2

> <Index>
973

> <MW (desalted)>
381.389

> <PlateID>
1046298-R-CC-013

> <RotBonds>
7

> <TPSA>
50.720

> <Well>
C10

$$$$

BBcorina  07172010053D 1   1.00000     0.00000 
CORINA 4.1.0 0026  01.08.2017
 48 50  0  0  0  0  0  0  0  0999 V2000
    3.3160   -2.1868   -0.2153 C   0  0  0  1  0  0  0  0  0  0  0  0
    2.6775   -0.9100   -0.1509 O   0  0  0  1  0  0  0  0  0  0  0  0
    2.7830   -0.2257    1.0185 C   0  0  0  1  0  0  0  0  0  0  0  0
    3.4916   -0.7690    2.0799 C   0  0  0  1  0  0  0  0  0  0  0  0
    3.5921   -0.0740    3.2698 C   0  0  0  1  0  0  0  0  0  0  0  0
    2.9928    1.1648    3.4008 C   0  0  0  1  0  0  0  0  0  0  0  0
    2.2909    1.7114    2.3420 C   0  0  0  1  0  0  0  0  0  0  0  0
    2.1871    1.0204    1.1506 C   0  0  0  1  0  0  0  0  0  0  0  0
    1.4222    1.6167   -0.0028 C   0  0  0  1  0  0  0  0  0  0  0  0
   -0.0127    1.0858    0.0080 C   0  0  0  1  0  0  0  0  0  0  0  0
   -0.7558    1.5943   -1.2305 C   0  0  0  1  0  0  0  0  0  0  0  0
   -2.2065    1.1092   -1.1838 C   0  0  0  1  0  0  0  0  0  0  0  0
   -2.8523    1.6097    0.0364 N   0  0  0  1  0  0  0  0  0  0  0  0
   -4.2838    1.2801    0.0475 C   0  0  0  1  0  0  0  0  0  0  0  0
   -4.8591    1.5855    1.4064 C   0  0  0  1  0  0  0  0  0  0  0  0
   -5.3817    2.8384    1.6689 C   0  0  0  1  0  0  0  0  0  0  0  0
   -5.9096    3.1209    2.9139 C   0  0  0  1  0  0  0  0  0  0  0  0
   -5.9152    2.1462    3.9011 C   0  0  0  1  0  0  0  0  0  0  0  0
   -6.4336    2.4218    5.1267 O   0  0  0  1  0  0  0  0  0  0  0  0
   -5.3903    0.8899    3.6352 C   0  0  0  1  0  0  0  0  0  0  0  0
   -4.8686    0.6106    2.3869 C   0  0  0  1  0  0  0  0  0  0  0  0
   -2.1847    1.0962    1.2393 C   0  0  0  1  0  0  0  0  0  0  0  0
   -0.7320    1.5809    1.2658 C   0  0  0  1  0  0  0  0  0  0  0  0
    4.3390   -2.1009    0.1511 H   0  0  0  1  0  0  0  0  0  0  0  0
    3.3283   -2.5349   -1.2481 H   0  0  0  1  0  0  0  0  0  0  0  0
    2.7678   -2.8984    0.4021 H   0  0  0  1  0  0  0  0  0  0  0  0
    3.9688   -1.7434    1.9754 H   0  0  0  1  0  0  0  0  0  0  0  0
    4.1444   -0.5029    4.1059 H   0  0  0  1  0  0  0  0  0  0  0  0
    3.0736    1.7117    4.3402 H   0  0  0  1  0  0  0  0  0  0  0  0
    1.8192    2.6883    2.4478 H   0  0  0  1  0  0  0  0  0  0  0  0
    1.9047    1.3402   -0.9403 H   0  0  0  1  0  0  0  0  0  0  0  0
    1.4085    2.7024    0.0930 H   0  0  0  1  0  0  0  0  0  0  0  0
    0.0019   -0.0041    0.0020 H   0  0  0  1  0  0  0  0  0  0  0  0
   -0.2721    1.2101   -2.1286 H   0  0  0  1  0  0  0  0  0  0  0  0
   -0.7366    2.6840   -1.2448 H   0  0  0  1  0  0  0  0  0  0  0  0
   -2.2250    0.0194   -1.1834 H   0  0  0  1  0  0  0  0  0  0  0  0
   -2.7421    1.4818   -2.0569 H   0  0  0  1  0  0  0  0  0  0  0  0
   -4.4142    0.2205   -0.1723 H   0  0  0  1  0  0  0  0  0  0  0  0
   -4.7992    1.8744   -0.7070 H   0  0  0  1  0  0  0  0  0  0  0  0
   -5.3772    3.6038    0.8929 H   0  0  0  1  0  0  0  0  0  0  0  0
   -6.3214    4.1088    3.1204 H   0  0  0  1  0  0  0  0  0  0  0  0
   -6.6022    3.4547    5.2118 H   0  0  0  1  0  0  0  0  0  0  0  0
   -5.3895    0.1238    4.4106 H   0  0  0  1  0  0  0  0  0  0  0  0
   -4.4641   -0.3791    2.1747 H   0  0  0  1  0  0  0  0  0  0  0  0
   -2.2034    0.0064    1.2274 H   0  0  0  1  0  0  0  0  0  0  0  0
   -2.7046    1.4594    2.1258 H   0  0  0  1  0  0  0  0  0  0  0  0
   -0.7118    2.6704    1.2921 H   0  0  0  1  0  0  0  0  0  0  0  0
   -0.2323    1.1863    2.1505 H   0  0  0  1  0  0  0  0  0  0  0  0
  1  2  1  0  0  0  0
  1 24  1  0  0  0  0
  1 25  1  0  0  0  0
  1 26  1  0  0  0  0
  2  3  1  0  0  0  0
  3  4  2  0  0  0  0
  3  8  1  0  0  0  0
  4  5  1  0  0  0  0
  4 27  1  0  0  0  0
  5  6  2  0  0  0  0
  5 28  1  0  0  0  0
  6  7  1  0  0  0  0
  6 29  1  0  0  0  0
  7  8  2  0  0  0  0
  7 30  1  0  0  0  0
  8  9  1  0  0  0  0
  9 10  1  0  0  0  0
  9 31  1  0  0  0  0
  9 32  1  0  0  0  0
 10 11  1  0  0  0  0
 10 23  1  0  0  0  0
 10 33  1  0  0  0  0
 11 12  1  0  0  0  0
 11 34  1  0  0  0  0
 11 35  1  0  0  0  0
 12 13  1  0  0  0  0
 12 36  1  0  0  0  0
 12 37  1  0  0  0  0
 13 14  1  0  0  0  0
 13 22  1  0  0  0  0
 14 15  1  0  0  0  0
 14 38  1  0  0  0  0
 14 39  1  0  0  0  0
 15 16  2  0  0  0  0
 15 21  1  0  0  0  0
 16 17  1  0  0  0  0
 16 40  1  0  0  0  0
 17 18  2  0  0  0  0
 17 41  1  0  0  0  0
 18 19  1  0  0  0  0
 18 20  1  0  0  0  0
 19 42  1  0  0  0  0
 20 21  2  0  0  0  0
 20 43  1  0  0  0  0
 21 44  1  0  0  0  0
 22 23  1  0  0  0  0
 22 45  1  0  0  0  0
 22 46  1  0  0  0  0
 23 47  1  0  0  0  0
 23 48  1  0  0  0  0
M  END
> <Catalog ID>
Z1623978044

> <ClogP>
4.358

> <HBD>
1

> <Index>
5412

> <MW (desalted)>
311.418

> <PlateID>
1046298-R-CC-069

> <RotBonds>
5

> <TPSA>
32.700

> <Well>
B04

$$$$

BBcorina  07172010053D 1   1.00000     0.00000 
CORINA 4.1.0 0026  01.08.2017
 45 46  0  0  0  0  0  0  0  0999 V2000
   -5.6460   -3.7119   -6.4404 C   0  0  0  1  0  0  0  0  0  0  0  0
   -4.8914   -3.8412   -5.2338 O   0  0  0  1  0  0  0  0  0  0  0  0
   -3.7961   -4.6447   -5.2742 C   0  0  0  1  0  0  0  0  0  0  0  0
   -3.4519   -5.2911   -6.4524 C   0  0  0  1  0  0  0  0  0  0  0  0
   -2.3416   -6.1127   -6.4907 C   0  0  0  1  0  0  0  0  0  0  0  0
   -1.5696   -6.2872   -5.3577 C   0  0  0  1  0  0  0  0  0  0  0  0
   -1.9070   -5.6389   -4.1810 C   0  0  0  1  0  0  0  0  0  0  0  0
   -1.1513   -5.8111   -3.0744 F   0  0  0  1  0  0  0  0  0  0  0  0
   -3.0179   -4.8155   -4.1387 C   0  0  0  1  0  0  0  0  0  0  0  0
   -3.3856   -4.1098   -2.8589 C   0  0  0  1  0  0  0  0  0  0  0  0
   -4.0069   -5.1122   -1.8842 C   0  0  0  1  0  0  0  0  0  0  0  0
   -2.1825   -3.5272   -2.2595 N   0  0  0  1  0  0  0  0  0  0  0  0
   -2.2864   -2.4654   -1.4359 C   0  0  0  1  0  0  0  0  0  0  0  0
   -3.3787   -1.9911   -1.1904 O   0  0  0  1  0  0  0  0  0  0  0  0
   -1.1796   -1.9294   -0.8844 N   0  0  0  1  0  0  0  0  0  0  0  0
   -1.2926   -0.7753    0.0108 C   0  0  0  1  0  0  0  0  0  0  0  0
   -1.5884   -1.2591    1.4318 C   0  0  0  1  0  0  0  0  0  0  0  0
   -0.4750   -2.0094    1.9210 O   0  0  0  1  0  0  0  0  0  0  0  0
    0.0021   -0.0041    0.0020 C   0  0  0  1  0  0  0  0  0  0  0  0
   -0.0167    1.3781    0.0096 C   0  0  0  1  0  0  0  0  0  0  0  0
    1.1710    2.0855    0.0021 C   0  0  0  1  0  0  0  0  0  0  0  0
    2.3773    1.4107   -0.0145 C   0  0  0  1  0  0  0  0  0  0  0  0
    2.3960    0.0285   -0.0217 C   0  0  0  1  0  0  0  0  0  0  0  0
    1.2084   -0.6789   -0.0132 C   0  0  0  1  0  0  0  0  0  0  0  0
   -6.6839   -3.4840   -6.1978 H   0  0  0  1  0  0  0  0  0  0  0  0
   -5.6005   -4.6468   -6.9990 H   0  0  0  1  0  0  0  0  0  0  0  0
   -5.2291   -2.9063   -7.0448 H   0  0  0  1  0  0  0  0  0  0  0  0
   -4.0573   -5.1509   -7.3479 H   0  0  0  1  0  0  0  0  0  0  0  0
   -2.0743   -6.6238   -7.4156 H   0  0  0  1  0  0  0  0  0  0  0  0
   -0.6942   -6.9358   -5.3901 H   0  0  0  1  0  0  0  0  0  0  0  0
   -4.1113   -3.3254   -3.0740 H   0  0  0  1  0  0  0  0  0  0  0  0
   -3.4531   -6.0502   -1.9247 H   0  0  0  1  0  0  0  0  0  0  0  0
   -5.0457   -5.2917   -2.1611 H   0  0  0  1  0  0  0  0  0  0  0  0
   -3.9645   -4.7089   -0.8725 H   0  0  0  1  0  0  0  0  0  0  0  0
   -1.2213   -3.9446   -2.4756 H   0  0  0  1  0  0  0  0  0  0  0  0
   -0.2184   -2.3468   -1.1004 H   0  0  0  1  0  0  0  0  0  0  0  0
   -2.1028   -0.1256   -0.3202 H   0  0  0  1  0  0  0  0  0  0  0  0
   -2.4765   -1.8911    1.4228 H   0  0  0  1  0  0  0  0  0  0  0  0
   -1.7600   -0.3996    2.0798 H   0  0  0  1  0  0  0  0  0  0  0  0
   -0.5358   -2.0856    2.9665 H   0  0  0  1  0  0  0  0  0  0  0  0
   -0.9679    1.9102    0.0215 H   0  0  0  1  0  0  0  0  0  0  0  0
    1.1563    3.1754    0.0093 H   0  0  0  1  0  0  0  0  0  0  0  0
    3.3137    1.9685   -0.0219 H   0  0  0  1  0  0  0  0  0  0  0  0
    3.3472   -0.5036   -0.0341 H   0  0  0  1  0  0  0  0  0  0  0  0
    1.2232   -1.7688   -0.0185 H   0  0  0  1  0  0  0  0  0  0  0  0
  1  2  1  0  0  0  0
  1 25  1  0  0  0  0
  1 26  1  0  0  0  0
  1 27  1  0  0  0  0
  2  3  1  0  0  0  0
  3  4  2  0  0  0  0
  3  9  1  0  0  0  0
  4  5  1  0  0  0  0
  4 28  1  0  0  0  0
  5  6  2  0  0  0  0
  5 29  1  0  0  0  0
  6  7  1  0  0  0  0
  6 30  1  0  0  0  0
  7  8  1  0  0  0  0
  7  9  2  0  0  0  0
  9 10  1  0  0  0  0
 10 11  1  0  0  0  0
 10 12  1  0  0  0  0
 10 31  1  0  0  0  0
 11 32  1  0  0  0  0
 11 33  1  0  0  0  0
 11 34  1  0  0  0  0
 12 13  1  0  0  0  0
 12 35  1  0  0  0  0
 13 14  2  0  0  0  0
 13 15  1  0  0  0  0
 15 16  1  0  0  0  0
 15 36  1  0  0  0  0
 16 17  1  0  0  0  0
 16 19  1  0  0  0  0
 16 37  1  0  0  0  0
 17 18  1  0  0  0  0
 17 38  1  0  0  0  0
 17 39  1  0  0  0  0
 18 40  1  0  0  0  0
 19 20  2  0  0  0  0
 19 24  1  0  0  0  0
 20 21  1  0  0  0  0
 20 41  1  0  0  0  0
 21 22  2  0  0  0  0
 21 42  1  0  0  0  0
 22 23  1  0  0  0  0
 22 43  1  0  0  0  0
 23 24  2  0  0  0  0
 23 44  1  0  0  0  0
 24 45  1  0  0  0  0
M  END
> <Catalog ID>
Z1307867203

> <ClogP>
2.636

> <HBD>
3

> <Index>
8036

> <MW (desalted)>
332.369

> <PlateID>
1046298-R-CC-102

> <RotBonds>
6

> <TPSA>
70.590

> <Well>
C03

$$$$

BBcorina  07172010053D 1   1.00000     0.00000 
CORINA 4.1.0 0026  01.08.2017
 41 44  0  0  0  0  0  0  0  0999 V2000
    3.6839   -4.2192    1.3711 C   0  0  0  1  0  0  0  0  0  0  0  0
    2.5556   -3.2787    1.3468 N   0  0  0  1  0  0  0  0  0  0  0  0
    2.1674   -2.9578   -0.0332 C   0  0  0  1  0  0  0  0  0  0  0  0
    1.0100   -1.9929   -0.0179 C   0  0  0  1  0  0  0  0  0  0  0  0
    1.1236   -0.7099   -0.0120 N   0  0  0  1  0  0  0  0  0  0  0  0
    0.0021   -0.0041    0.0020 C   0  0  0  1  0  0  0  0  0  0  0  0
   -1.1191   -0.7531    0.0140 C   0  0  0  1  0  0  0  0  0  0  0  0
   -0.6375   -2.4476   -0.0053 S   0  0  0  1  0  0  0  0  0  0  0  0
   -0.0180    1.4792    0.0102 C   0  0  0  1  0  0  0  0  0  0  0  0
    1.1778    2.1950    0.0026 C   0  0  0  1  0  0  0  0  0  0  0  0
    1.1531    3.5748    0.0098 C   0  0  0  1  0  0  0  0  0  0  0  0
   -0.0556    4.2475    0.0244 C   0  0  0  1  0  0  0  0  0  0  0  0
   -1.2455    3.5422    0.0320 C   0  0  0  1  0  0  0  0  0  0  0  0
   -1.2329    2.1622    0.0196 C   0  0  0  1  0  0  0  0  0  0  0  0
    4.0586   -4.5288    2.8218 C   0  0  0  1  0  0  0  0  0  0  0  0
    4.6902   -3.2930    3.5055 C   0  0  0  1  0  0  0  0  0  0  0  0
    6.0979   -3.4947    3.2878 O   0  0  0  1  0  0  0  0  0  0  0  0
    6.3489   -4.8283    3.1804 C   0  0  0  1  0  0  0  0  0  0  0  0
    7.5480   -5.5245    3.3087 C   0  0  0  1  0  0  0  0  0  0  0  0
    7.5782   -6.8934    3.1386 C   0  0  0  1  0  0  0  0  0  0  0  0
    6.4199   -7.5859    2.8387 C   0  0  0  1  0  0  0  0  0  0  0  0
    5.2235   -6.9017    2.7127 C   0  0  0  1  0  0  0  0  0  0  0  0
    5.1903   -5.5361    2.8860 C   0  0  0  1  0  0  0  0  0  0  0  0
    4.5389   -3.7740    0.8622 H   0  0  0  1  0  0  0  0  0  0  0  0
    3.3989   -5.1415    0.8648 H   0  0  0  1  0  0  0  0  0  0  0  0
    2.8405   -2.3776    1.8486 H   0  0  0  1  0  0  0  0  0  0  0  0
    1.8719   -3.8713   -0.5492 H   0  0  0  1  0  0  0  0  0  0  0  0
    3.0118   -2.5039   -0.5519 H   0  0  0  1  0  0  0  0  0  0  0  0
   -2.1420   -0.3769    0.0324 H   0  0  0  1  0  0  0  0  0  0  0  0
    2.1308    1.6660   -0.0090 H   0  0  0  1  0  0  0  0  0  0  0  0
    2.0877    4.1356    0.0040 H   0  0  0  1  0  0  0  0  0  0  0  0
   -0.0704    5.3374    0.0299 H   0  0  0  1  0  0  0  0  0  0  0  0
   -2.1949    4.0774    0.0478 H   0  0  0  1  0  0  0  0  0  0  0  0
   -2.1712    1.6075    0.0172 H   0  0  0  1  0  0  0  0  0  0  0  0
    3.1908   -4.8770    3.3820 H   0  0  0  1  0  0  0  0  0  0  0  0
    4.4566   -3.2709    4.5700 H   0  0  0  1  0  0  0  0  0  0  0  0
    4.3491   -2.3689    3.0389 H   0  0  0  1  0  0  0  0  0  0  0  0
    8.4660   -4.9861    3.5443 H   0  0  0  1  0  0  0  0  0  0  0  0
    8.5204   -7.4317    3.2412 H   0  0  0  1  0  0  0  0  0  0  0  0
    6.4488   -8.6669    2.7020 H   0  0  0  1  0  0  0  0  0  0  0  0
    4.3078   -7.4437    2.4764 H   0  0  0  1  0  0  0  0  0  0  0  0
  1  2  1  0  0  0  0
  1 15  1  0  0  0  0
  1 24  1  0  0  0  0
  1 25  1  0  0  0  0
  2  3  1  0  0  0  0
  2 26  1  0  0  0  0
  3  4  1  0  0  0  0
  3 27  1  0  0  0  0
  3 28  1  0  0  0  0
  4  5  2  0  0  0  0
  4  8  1  0  0  0  0
  5  6  1  0  0  0  0
  6  7  2  0  0  0  0
  6  9  1  0  0  0  0
  7  8  1  0  0  0  0
  7 29  1  0  0  0  0
  9 10  2  0  0  0  0
  9 14  1  0  0  0  0
 10 11  1  0  0  0  0
 10 30  1  0  0  0  0
 11 12  2  0  0  0  0
 11 31  1  0  0  0  0
 12 13  1  0  0  0  0
 12 32  1  0  0  0  0
 13 14  2  0  0  0  0
 13 33  1  0  0  0  0
 14 34  1  0  0  0  0
 15 16  1  0  0  0  0
 15 23  1  0  0  0  0
 15 35  1  0  0  0  0
 16 17  1  0  0  0  0
 16 36  1  0  0  0  0
 16 37  1  0  0  0  0
 17 18  1  0  0  0  0
 18 19  2  0  0  0  0
 18 23  1  0  0  0  0
 19 20  1  0  0  0  0
 19 38  1  0  0  0  0
 20 21  2  0  0  0  0
 20 39  1  0  0  0  0
 21 22  1  0  0  0  0
 21 40  1  0  0  0  0
 22 23  2  0  0  0  0
 22 41  1  0  0  0  0
M  END
> <Catalog ID>
Z2147341675

> <ClogP>
3.444

> <HBD>
1

> <Index>
8169

> <MW (desalted)>
322.424

> <PlateID>
1046298-R-CC-103

> <RotBonds>
5

> <TPSA>
34.150

> <Well>
H08

$$$$

BBcorina  07172010053D 1   1.00000     0.00000 
CORINA 4.1.0 0026  01.08.2017
 42 44  0  0  0  0  0  0  0  0999 V2000
   -0.6279   -2.5909   -1.3133 C   0  0  0  1  0  0  0  0  0  0  0  0
    0.1111   -2.9191   -0.0144 C   0  0  0  1  0  0  0  0  0  0  0  0
    1.7347   -2.1191   -0.0253 S   0  0  0  1  0  0  0  0  0  0  0  0
    1.2423   -0.4273   -0.0121 C   0  0  0  1  0  0  0  0  0  0  0  0
    0.0021   -0.0041    0.0020 N   0  0  0  1  0  0  0  0  0  0  0  0
   -0.0164    1.3546    0.0095 C   0  0  0  1  0  0  0  0  0  0  0  0
   -1.0444    2.3000    0.0295 C   0  0  0  1  0  0  0  0  0  0  0  0
   -0.7387    3.6430    0.0299 C   0  0  0  1  0  0  0  0  0  0  0  0
    0.5824    4.0639    0.0191 C   0  0  0  1  0  0  0  0  0  0  0  0
    1.6097    3.1423    0.0040 C   0  0  0  1  0  0  0  0  0  0  0  0
    1.3205    1.7867   -0.0010 C   0  0  0  1  0  0  0  0  0  0  0  0
    2.0965    0.6391   -0.0145 N   0  0  0  1  0  0  0  0  0  0  0  0
    0.2871   -4.4114    0.1001 C   0  0  0  1  0  0  0  0  0  0  0  0
    1.3483   -4.9210   -0.1917 O   0  0  0  1  0  0  0  0  0  0  0  0
   -0.7346   -5.1797    0.5268 N   0  0  0  1  0  0  0  0  0  0  0  0
   -0.5635   -6.6304    0.6382 C   0  0  0  1  0  0  0  0  0  0  0  0
   -1.8640   -7.2603    1.1410 C   0  0  0  1  0  0  0  0  0  0  0  0
   -1.6879   -8.7526    1.2556 C   0  0  0  1  0  0  0  0  0  0  0  0
   -1.2336   -9.3057    2.4383 C   0  0  0  1  0  0  0  0  0  0  0  0
   -1.0722  -10.6741    2.5447 C   0  0  0  1  0  0  0  0  0  0  0  0
   -1.3653  -11.4911    1.4659 C   0  0  0  1  0  0  0  0  0  0  0  0
   -1.2083  -12.8290    1.5689 F   0  0  0  1  0  0  0  0  0  0  0  0
   -1.8198  -10.9360    0.2817 C   0  0  0  1  0  0  0  0  0  0  0  0
   -1.9863   -9.5678    0.1797 C   0  0  0  1  0  0  0  0  0  0  0  0
    0.0194   -2.8041   -2.1640 H   0  0  0  1  0  0  0  0  0  0  0  0
   -0.8999   -1.5354   -1.3195 H   0  0  0  1  0  0  0  0  0  0  0  0
   -1.5296   -3.1994   -1.3817 H   0  0  0  1  0  0  0  0  0  0  0  0
   -0.4350   -2.5273    0.8437 H   0  0  0  1  0  0  0  0  0  0  0  0
   -2.0850    1.9760    0.0447 H   0  0  0  1  0  0  0  0  0  0  0  0
   -1.5413    4.3805    0.0388 H   0  0  0  1  0  0  0  0  0  0  0  0
    0.8111    5.1296    0.0226 H   0  0  0  1  0  0  0  0  0  0  0  0
    2.6461    3.4797   -0.0040 H   0  0  0  1  0  0  0  0  0  0  0  0
    3.1656    0.5959   -0.0249 H   0  0  0  1  0  0  0  0  0  0  0  0
   -1.6708   -4.7301    0.7842 H   0  0  0  1  0  0  0  0  0  0  0  0
    0.2409   -6.8483    1.3407 H   0  0  0  1  0  0  0  0  0  0  0  0
   -0.3144   -7.0429   -0.3395 H   0  0  0  1  0  0  0  0  0  0  0  0
   -2.6684   -7.0424    0.4385 H   0  0  0  1  0  0  0  0  0  0  0  0
   -2.1131   -6.8478    2.1187 H   0  0  0  1  0  0  0  0  0  0  0  0
   -1.0026   -8.6623    3.2873 H   0  0  0  1  0  0  0  0  0  0  0  0
   -0.7143  -11.1100    3.4774 H   0  0  0  1  0  0  0  0  0  0  0  0
   -2.0462  -11.5778   -0.5697 H   0  0  0  1  0  0  0  0  0  0  0  0
   -2.3530   -9.1313   -0.7493 H   0  0  0  1  0  0  0  0  0  0  0  0
  1  2  1  0  0  0  0
  1 25  1  0  0  0  0
  1 26  1  0  0  0  0
  1 27  1  0  0  0  0
  2  3  1  0  0  0  0
  2 13  1  0  0  0  0
  2 28  1  0  0  0  0
  3  4  1  0  0  0  0
  4  5  2  0  0  0  0
  4 12  1  0  0  0  0
  5  6  1  0  0  0  0
  6  7  2  0  0  0  0
  6 11  1  0  0  0  0
  7  8  1  0  0  0  0
  7 29  1  0  0  0  0
  8  9  2  0  0  0  0
  8 30  1  0  0  0  0
  9 10  1  0  0  0  0
  9 31  1  0  0  0  0
 10 11  2  0  0  0  0
 10 32  1  0  0  0  0
 11 12  1  0  0  0  0
 12 33  1  0  0  0  0
 13 14  2  0  0  0  0
 13 15  1  0  0  0  0
 15 16  1  0  0  0  0
 15 34  1  0  0  0  0
 16 17  1  0  0  0  0
 16 35  1  0  0  0  0
 16 36  1  0  0  0  0
 17 18  1  0  0  0  0
 17 37  1  0  0  0  0
 17 38  1  0  0  0  0
 18 19  2  0  0  0  0
 18 24  1  0  0  0  0
 19 20  1  0  0  0  0
 19 39  1  0  0  0  0
 20 21  2  0  0  0  0
 20 40  1  0  0  0  0
 21 22  1  0  0  0  0
 21 23  1  0  0  0  0
 23 24  2  0  0  0  0
 23 41  1  0  0  0  0
 24 42  1  0  0  0  0
M  END
> <Catalog ID>
Z19650258

> <ClogP>
3.810

> <HBD>
2

> <Index>
9477

> <MW (desalted)>
343.418

> <PlateID>
1046298-R-CC-120

> <RotBonds>
6

> <TPSA>
57.780

> <Well>
E06

$$$$

BBcorina  07172010053D 1   1.00000     0.00000 
CORINA 4.1.0 0026  01.08.2017
 41 43  0  0  0  0  0  0  0  0999 V2000
   -2.5409   -0.0249    1.3362 N   0  0  0  1  0  0  0  0  0  0  0  0
   -3.3048    0.5660    0.2293 C   0  0  0  1  0  0  0  0  0  0  0  0
   -2.5483    0.3528   -1.0834 C   0  0  0  1  0  0  0  0  0  0  0  0
   -3.2764    1.0803   -2.2155 C   0  0  0  1  0  0  0  0  0  0  0  0
   -4.7212    0.5788   -2.3027 C   0  0  0  1  0  0  0  0  0  0  0  0
   -5.4008    1.2037   -3.5237 C   0  0  0  1  0  0  0  0  0  0  0  0
   -4.6622    0.7819   -4.7960 C   0  0  0  1  0  0  0  0  0  0  0  0
   -3.2177    1.2883   -4.7348 C   0  0  0  1  0  0  0  0  0  0  0  0
   -2.6003    0.8076   -3.4912 N   0  0  0  1  0  0  0  0  0  0  0  0
   -1.1700   -0.0263   -3.5267 S   0  0  0  1  0  0  0  0  0  0  0  0
   -0.6430    0.1367   -4.8363 O   0  0  0  1  0  0  0  0  0  0  0  0
   -0.4610    0.3430   -2.3520 O   0  0  0  1  0  0  0  0  0  0  0  0
   -1.5589   -1.7364   -3.3562 C   0  0  0  1  0  0  0  0  0  0  0  0
   -1.8082   -2.5715   -4.3741 C   0  0  0  1  0  0  0  0  0  0  0  0
   -2.0807   -3.8817   -3.7711 C   0  0  0  1  0  0  0  0  0  0  0  0
   -2.4005   -5.1399   -4.2788 C   0  0  0  1  0  0  0  0  0  0  0  0
   -2.5987   -6.1941   -3.4113 C   0  0  0  1  0  0  0  0  0  0  0  0
   -2.9090   -7.4162   -3.8966 F   0  0  0  1  0  0  0  0  0  0  0  0
   -2.4800   -6.0034   -2.0405 C   0  0  0  1  0  0  0  0  0  0  0  0
   -2.1636   -4.7635   -1.5280 C   0  0  0  1  0  0  0  0  0  0  0  0
   -1.9611   -3.6893   -2.3845 C   0  0  0  1  0  0  0  0  0  0  0  0
   -1.6428   -2.3936   -2.1865 O   0  0  0  1  0  0  0  0  0  0  0  0
   -2.9473    0.3080    2.2684 H   0  0  0  1  0  0  0  0  0  0  0  0
   -1.5174    0.2787    1.2649 H   0  0  0  1  0  0  0  0  0  0  0  0
   -3.4325    1.6340    0.4056 H   0  0  0  1  0  0  0  0  0  0  0  0
   -4.2824    0.0881    0.1668 H   0  0  0  1  0  0  0  0  0  0  0  0
   -2.5022   -0.7130   -1.3071 H   0  0  0  1  0  0  0  0  0  0  0  0
   -1.5372    0.7487   -0.9884 H   0  0  0  1  0  0  0  0  0  0  0  0
   -3.2785    2.1514   -2.0131 H   0  0  0  1  0  0  0  0  0  0  0  0
   -5.2608    0.8646   -1.3998 H   0  0  0  1  0  0  0  0  0  0  0  0
   -4.7244   -0.5068   -2.4002 H   0  0  0  1  0  0  0  0  0  0  0  0
   -5.3782    2.2898   -3.4347 H   0  0  0  1  0  0  0  0  0  0  0  0
   -6.4353    0.8644   -3.5759 H   0  0  0  1  0  0  0  0  0  0  0  0
   -5.1613    1.2099   -5.6654 H   0  0  0  1  0  0  0  0  0  0  0  0
   -4.6637   -0.3053   -4.8742 H   0  0  0  1  0  0  0  0  0  0  0  0
   -3.2107    2.3782   -4.7498 H   0  0  0  1  0  0  0  0  0  0  0  0
   -2.6600    0.9090   -5.5911 H   0  0  0  1  0  0  0  0  0  0  0  0
   -1.8086   -2.3270   -5.4363 H   0  0  0  1  0  0  0  0  0  0  0  0
   -2.4934   -5.2899   -5.3544 H   0  0  0  1  0  0  0  0  0  0  0  0
   -2.6386   -6.8426   -1.3633 H   0  0  0  1  0  0  0  0  0  0  0  0
   -2.0724   -4.6262   -0.4505 H   0  0  0  1  0  0  0  0  0  0  0  0
  1  2  1  0  0  0  0
  1 23  1  0  0  0  0
  1 24  1  0  0  0  0
  2  3  1  0  0  0  0
  2 25  1  0  0  0  0
  2 26  1  0  0  0  0
  3  4  1  0  0  0  0
  3 27  1  0  0  0  0
  3 28  1  0  0  0  0
  4  5  1  0  0  0  0
  4  9  1  0  0  0  0
  4 29  1  0  0  0  0
  5  6  1  0  0  0  0
  5 30  1  0  0  0  0
  5 31  1  0  0  0  0
  6  7  1  0  0  0  0
  6 32  1  0  0  0  0
  6 33  1  0  0  0  0
  7  8  1  0  0  0  0
  7 34  1  0  0  0  0
  7 35  1  0  0  0  0
  8  9  1  0  0  0  0
  8 36  1  0  0  0  0
  8 37  1  0  0  0  0
  9 10  1  0  0  0  0
 10 11  2  0  0  0  0
 10 12  2  0  0  0  0
 10 13  1  0  0  0  0
 13 14  2  0  0  0  0
 13 22  1  0  0  0  0
 14 15  1  0  0  0  0
 14 38  1  0  0  0  0
 15 16  2  0  0  0  0
 15 21  1  0  0  0  0
 16 17  1  0  0  0  0
 16 39  1  0  0  0  0
 17 18  1  0  0  0  0
 17 19  2  0  0  0  0
 19 20  1  0  0  0  0
 19 40  1  0  0  0  0
 20 21  2  0  0  0  0
 20 41  1  0  0  0  0
 21 22  1  0  0  0  0
M  END
> <Catalog ID>
Z2444021187

> <ClogP>
2.938

> <HBD>
1

> <Index>
10113

> <MW (desalted)>
326.386

> <PlateID>
1046298-R-CC-128

> <RotBonds>
3

> <TPSA>
76.540

> <Well>
E11

$$$$

BBcorina  07172010053D 1   1.00000     0.00000 
CORINA 4.1.0 0026  01.08.2017
 45 47  0  0  0  0  0  0  0  0999 V2000
   -0.0076    5.3583   -1.2281 O   0  0  0  1  0  0  0  0  0  0  0  0
   -0.3546    3.9731   -1.2821 C   0  0  0  1  0  0  0  0  0  0  0  0
   -1.0356    3.5666    0.0263 C   0  0  0  1  0  0  0  0  0  0  0  0
   -1.2947    2.0587    0.0194 C   0  0  0  1  0  0  0  0  0  0  0  0
   -0.0162    1.3436    0.0094 N   0  0  0  1  0  0  0  0  0  0  0  0
    0.0021   -0.0041    0.0020 C   0  0  0  1  0  0  0  0  0  0  0  0
   -1.0399   -0.6247    0.0086 O   0  0  0  1  0  0  0  0  0  0  0  0
    1.3172   -0.7397   -0.0145 C   0  0  0  1  0  0  0  0  0  0  0  0
    2.0503   -0.4535   -1.3351 C   0  0  0  1  0  0  0  0  0  0  0  0
    3.7046   -1.1985   -1.2030 S   0  0  0  1  0  0  0  0  0  0  0  0
    3.3404   -2.7737   -0.4929 C   0  0  0  1  0  0  0  0  0  0  0  0
    4.3241   -3.7549   -0.4957 C   0  0  0  1  0  0  0  0  0  0  0  0
    4.0741   -4.9929    0.0637 C   0  0  0  1  0  0  0  0  0  0  0  0
    2.8394   -5.2540    0.6278 C   0  0  0  1  0  0  0  0  0  0  0  0
    1.8567   -4.2849    0.6292 C   0  0  0  1  0  0  0  0  0  0  0  0
    2.0938   -3.0335    0.0649 C   0  0  0  1  0  0  0  0  0  0  0  0
    1.0821   -2.1356    0.0922 O   0  0  0  1  0  0  0  0  0  0  0  0
   -2.3648    4.3119    0.1624 C   0  0  0  1  0  0  0  0  0  0  0  0
   -2.1010    5.7899    0.2927 C   0  0  0  1  0  0  0  0  0  0  0  0
   -2.0373    6.5829   -0.8377 C   0  0  0  1  0  0  0  0  0  0  0  0
   -1.7957    7.9387   -0.7182 C   0  0  0  1  0  0  0  0  0  0  0  0
   -1.6178    8.5015    0.5318 C   0  0  0  1  0  0  0  0  0  0  0  0
   -1.6815    7.7085    1.6623 C   0  0  0  1  0  0  0  0  0  0  0  0
   -1.9283    6.3536    1.5431 C   0  0  0  1  0  0  0  0  0  0  0  0
   -0.7311    5.8795   -0.6737 H   0  0  0  1  0  0  0  0  0  0  0  0
    0.5477    3.3778   -1.4221 H   0  0  0  1  0  0  0  0  0  0  0  0
   -1.0365    3.8017   -2.1150 H   0  0  0  1  0  0  0  0  0  0  0  0
   -0.3891    3.8203    0.8664 H   0  0  0  1  0  0  0  0  0  0  0  0
   -1.8667    1.7925   -0.8695 H   0  0  0  1  0  0  0  0  0  0  0  0
   -1.8582    1.7829    0.9108 H   0  0  0  1  0  0  0  0  0  0  0  0
    0.9031    1.8912    0.0080 H   0  0  0  1  0  0  0  0  0  0  0  0
    1.9343   -0.3920    0.8139 H   0  0  0  1  0  0  0  0  0  0  0  0
    2.1363    0.6221   -1.4890 H   0  0  0  1  0  0  0  0  0  0  0  0
    1.5060   -0.8979   -2.1684 H   0  0  0  1  0  0  0  0  0  0  0  0
    5.2970   -3.5469   -0.9411 H   0  0  0  1  0  0  0  0  0  0  0  0
    4.8475   -5.7610    0.0603 H   0  0  0  1  0  0  0  0  0  0  0  0
    2.6412   -6.2289    1.0732 H   0  0  0  1  0  0  0  0  0  0  0  0
    0.8862   -4.5007    1.0759 H   0  0  0  1  0  0  0  0  0  0  0  0
   -2.8909    3.9573    1.0487 H   0  0  0  1  0  0  0  0  0  0  0  0
   -2.9761    4.1286   -0.7212 H   0  0  0  1  0  0  0  0  0  0  0  0
   -2.1776    6.1391   -1.8233 H   0  0  0  1  0  0  0  0  0  0  0  0
   -1.7455    8.5640   -1.6096 H   0  0  0  1  0  0  0  0  0  0  0  0
   -1.4273    9.5706    0.6260 H   0  0  0  1  0  0  0  0  0  0  0  0
   -1.5371    8.1516    2.6477 H   0  0  0  1  0  0  0  0  0  0  0  0
   -1.9867    5.7297    2.4350 H   0  0  0  1  0  0  0  0  0  0  0  0
  1  2  1  0  0  0  0
  1 25  1  0  0  0  0
  2  3  1  0  0  0  0
  2 26  1  0  0  0  0
  2 27  1  0  0  0  0
  3  4  1  0  0  0  0
  3 18  1  0  0  0  0
  3 28  1  0  0  0  0
  4  5  1  0  0  0  0
  4 29  1  0  0  0  0
  4 30  1  0  0  0  0
  5  6  1  0  0  0  0
  5 31  1  0  0  0  0
  6  7  2  0  0  0  0
  6  8  1  0  0  0  0
  8  9  1  0  0  0  0
  8 17  1  0  0  0  0
  8 32  1  0  0  0  0
  9 10  1  0  0  0  0
  9 33  1  0  0  0  0
  9 34  1  0  0  0  0
 10 11  1  0  0  0  0
 11 12  2  0  0  0  0
 11 16  1  0  0  0  0
 12 13  1  0  0  0  0
 12 35  1  0  0  0  0
 13 14  2  0  0  0  0
 13 36  1  0  0  0  0
 14 15  1  0  0  0  0
 14 37  1  0  0  0  0
 15 16  2  0  0  0  0
 15 38  1  0  0  0  0
 16 17  1  0  0  0  0
 18 19  1  0  0  0  0
 18 39  1  0  0  0  0
 18 40  1  0  0  0  0
 19 20  2  0  0  0  0
 19 24  1  0  0  0  0
 20 21  1  0  0  0  0
 20 41  1  0  0  0  0
 21 22  2  0  0  0  0
 21 42  1  0  0  0  0
 22 23  1  0  0  0  0
 22 43  1  0  0  0  0
 23 24  2  0  0  0  0
 23 44  1  0  0  0  0
 24 45  1  0  0  0  0
M  END
> <Catalog ID>
Z1230011184

> <ClogP>
2.989

> <HBD>
2

> <Index>
10207

> <MW (desalted)>
343.440

> <PlateID>
1046298-R-CC-129

> <RotBonds>
6

> <TPSA>
58.560

> <Well>
G05

$$$$

BBcorina  07172010053D 1   1.00000     0.00000 
CORINA 4.1.0 0026  01.08.2017
 41 43  0  0  0  0  0  0  0  0999 V2000
    2.2254    5.2922    0.0088 C   0  0  0  1  0  0  0  0  0  0  0  0
    2.3216    3.8665    0.0002 O   0  0  0  1  0  0  0  0  0  0  0  0
    1.1551    3.1693    0.0081 C   0  0  0  1  0  0  0  0  0  0  0  0
    1.1746    1.7822    0.0004 C   0  0  0  1  0  0  0  0  0  0  0  0
   -0.0126    1.0758    0.0080 C   0  0  0  1  0  0  0  0  0  0  0  0
   -1.2196    1.7502    0.0173 C   0  0  0  1  0  0  0  0  0  0  0  0
   -1.2416    3.1326    0.0307 C   0  0  0  1  0  0  0  0  0  0  0  0
   -0.0572    3.8436    0.0232 C   0  0  0  1  0  0  0  0  0  0  0  0
   -2.5132    0.9772    0.0188 C   0  0  0  1  0  0  0  0  0  0  0  0
   -3.4737    1.6316    0.9172 N   0  0  0  1  0  0  0  0  0  0  0  0
   -4.4691    0.6717    1.4129 C   0  0  0  1  0  0  0  0  0  0  0  0
   -5.4497    1.3886    2.3432 C   0  0  0  1  0  0  0  0  0  0  0  0
   -6.6364    0.5826    2.8752 C   0  0  0  1  0  0  0  0  0  0  0  0
   -5.4810    0.9514    3.8091 C   0  0  0  1  0  0  0  0  0  0  0  0
   -3.0773    0.9393   -1.3781 C   0  0  0  1  0  0  0  0  0  0  0  0
   -2.9032   -0.1847   -2.1637 C   0  0  0  1  0  0  0  0  0  0  0  0
   -3.4210   -0.2196   -3.4449 C   0  0  0  1  0  0  0  0  0  0  0  0
   -4.1130    0.8696   -3.9406 C   0  0  0  1  0  0  0  0  0  0  0  0
   -4.2871    1.9937   -3.1550 C   0  0  0  1  0  0  0  0  0  0  0  0
   -3.7738    2.0265   -1.8719 C   0  0  0  1  0  0  0  0  0  0  0  0
    2.8904    5.6972    0.7716 H   0  0  0  1  0  0  0  0  0  0  0  0
    1.1990    5.5855    0.2291 H   0  0  0  1  0  0  0  0  0  0  0  0
    2.5135    5.6814   -0.9677 H   0  0  0  1  0  0  0  0  0  0  0  0
    2.1258    1.2501   -0.0116 H   0  0  0  1  0  0  0  0  0  0  0  0
    0.0022   -0.0141    0.0067 H   0  0  0  1  0  0  0  0  0  0  0  0
   -2.1943    3.6619    0.0472 H   0  0  0  1  0  0  0  0  0  0  0  0
   -0.0752    4.9334    0.0291 H   0  0  0  1  0  0  0  0  0  0  0  0
   -2.3240   -0.0410    0.3586 H   0  0  0  1  0  0  0  0  0  0  0  0
   -3.9755    2.4120    0.3842 H   0  0  0  1  0  0  0  0  0  0  0  0
   -3.9647   -0.1243    1.9606 H   0  0  0  1  0  0  0  0  0  0  0  0
   -5.0135    0.2453    0.5703 H   0  0  0  1  0  0  0  0  0  0  0  0
   -5.6269    2.4457    2.1450 H   0  0  0  1  0  0  0  0  0  0  0  0
   -6.7757   -0.4525    2.5632 H   0  0  0  1  0  0  0  0  0  0  0  0
   -7.6087    1.0600    2.9966 H   0  0  0  1  0  0  0  0  0  0  0  0
   -5.6308    1.6914    4.5953 H   0  0  0  1  0  0  0  0  0  0  0  0
   -4.7978    0.1789    4.1620 H   0  0  0  1  0  0  0  0  0  0  0  0
   -2.3576   -1.0436   -1.7729 H   0  0  0  1  0  0  0  0  0  0  0  0
   -3.2837   -1.1059   -4.0643 H   0  0  0  1  0  0  0  0  0  0  0  0
   -4.5214    0.8421   -4.9508 H   0  0  0  1  0  0  0  0  0  0  0  0
   -4.8291    2.8542   -3.5473 H   0  0  0  1  0  0  0  0  0  0  0  0
   -3.9182    2.9096   -1.2495 H   0  0  0  1  0  0  0  0  0  0  0  0
  1  2  1  0  0  0  0
  1 21  1  0  0  0  0
  1 22  1  0  0  0  0
  1 23  1  0  0  0  0
  2  3  1  0  0  0  0
  3  4  2  0  0  0  0
  3  8  1  0  0  0  0
  4  5  1  0  0  0  0
  4 24  1  0  0  0  0
  5  6  2  0  0  0  0
  5 25  1  0  0  0  0
  6  7  1  0  0  0  0
  6  9  1  0  0  0  0
  7  8  2  0  0  0  0
  7 26  1  0  0  0  0
  8 27  1  0  0  0  0
  9 10  1  0  0  0  0
  9 15  1  0  0  0  0
  9 28  1  0  0  0  0
 10 11  1  0  0  0  0
 10 29  1  0  0  0  0
 11 12  1  0  0  0  0
 11 30  1  0  0  0  0
 11 31  1  0  0  0  0
 12 13  1  0  0  0  0
 12 14  1  0  0  0  0
 12 32  1  0  0  0  0
 13 14  1  0  0  0  0
 13 33  1  0  0  0  0
 13 34  1  0  0  0  0
 14 35  1  0  0  0  0
 14 36  1  0  0  0  0
 15 16  2  0  0  0  0
 15 20  1  0  0  0  0
 16 17  1  0  0  0  0
 16 37  1  0  0  0  0
 17 18  2  0  0  0  0
 17 38  1  0  0  0  0
 18 19  1  0  0  0  0
 18 39  1  0  0  0  0
 19 20  2  0  0  0  0
 19 40  1  0  0  0  0
 20 41  1  0  0  0  0
M  END
> <Catalog ID>
Z385479012

> <ClogP>
3.750

> <HBD>
1

> <Index>
10380

> <MW (desalted)>
267.365

> <PlateID>
1046298-R-CC-131

> <RotBonds>
6

> <TPSA>
21.260

> <Well>
H09

$$$$

BBcorina  07172010053D 1   1.00000     0.00000 
CORINA 4.1.0 0026  01.08.2017
 41 43  0  0  0  0  0  0  0  0999 V2000
    7.3175    0.7456   -4.9094 C   0  0  0  1  0  0  0  0  0  0  0  0
    6.8909   -0.4951   -4.1679 C   0  0  0  1  0  0  0  0  0  0  0  0
    6.3345   -0.4562   -2.9740 N   0  0  0  1  0  0  0  0  0  0  0  0
    6.0119   -1.5848   -2.4382 C   0  0  0  1  0  0  0  0  0  0  0  0
    5.3690   -1.7446   -1.0846 C   0  0  0  1  0  0  0  0  0  0  0  0
    3.8468   -1.7153   -1.2364 C   0  0  0  1  0  0  0  0  0  0  0  0
    3.2201   -1.8711    0.0831 N   0  0  0  1  0  0  0  0  0  0  0  0
    1.7552   -1.8477   -0.0239 C   0  0  0  1  0  0  0  0  0  0  0  0
    1.2735   -0.4198   -0.0124 C   0  0  0  1  0  0  0  0  0  0  0  0
    2.0421    0.6943   -0.0137 C   0  0  0  1  0  0  0  0  0  0  0  0
    1.1866    1.7425    0.0001 N   0  0  0  1  0  0  0  0  0  0  0  0
   -0.0154    1.2821    0.0091 N   0  0  0  1  0  0  0  0  0  0  0  0
    0.0021   -0.0041    0.0020 N   0  0  0  1  0  0  0  0  0  0  0  0
    1.1545   -2.5899    1.1420 C   0  0  0  1  0  0  0  0  0  0  0  0
    0.0573   -3.4084    0.9484 C   0  0  0  1  0  0  0  0  0  0  0  0
   -0.4941   -4.0899    2.0167 C   0  0  0  1  0  0  0  0  0  0  0  0
    0.0524   -3.9523    3.2814 C   0  0  0  1  0  0  0  0  0  0  0  0
   -0.4856   -4.6184    4.3265 F   0  0  0  1  0  0  0  0  0  0  0  0
    1.1510   -3.1319    3.4742 C   0  0  0  1  0  0  0  0  0  0  0  0
    1.7045   -2.4562    2.4033 C   0  0  0  1  0  0  0  0  0  0  0  0
    6.4262   -2.8731   -3.4831 S   0  0  0  1  0  0  0  0  0  0  0  0
    7.0464   -1.7250   -4.6671 C   0  0  0  1  0  0  0  0  0  0  0  0
    7.6504   -2.0693   -6.0041 C   0  0  0  1  0  0  0  0  0  0  0  0
    8.2505    1.1191   -4.4873 H   0  0  0  1  0  0  0  0  0  0  0  0
    6.5450    1.5088   -4.8148 H   0  0  0  1  0  0  0  0  0  0  0  0
    7.4656    0.5063   -5.9625 H   0  0  0  1  0  0  0  0  0  0  0  0
    5.6849   -0.9292   -0.4339 H   0  0  0  1  0  0  0  0  0  0  0  0
    5.6723   -2.6964   -0.6485 H   0  0  0  1  0  0  0  0  0  0  0  0
    3.5309   -2.5307   -1.8871 H   0  0  0  1  0  0  0  0  0  0  0  0
    3.5435   -0.7635   -1.6724 H   0  0  0  1  0  0  0  0  0  0  0  0
    3.5373   -1.0702    0.7178 H   0  0  0  1  0  0  0  0  0  0  0  0
    1.4449   -2.3251   -0.9533 H   0  0  0  1  0  0  0  0  0  0  0  0
    3.1312    0.7383   -0.0238 H   0  0  0  1  0  0  0  0  0  0  0  0
    1.4619    2.7765    0.0030 H   0  0  0  1  0  0  0  0  0  0  0  0
   -0.3730   -3.5162   -0.0472 H   0  0  0  1  0  0  0  0  0  0  0  0
   -1.3589   -4.7355    1.8638 H   0  0  0  1  0  0  0  0  0  0  0  0
    1.5791   -3.0191    4.4702 H   0  0  0  1  0  0  0  0  0  0  0  0
    2.5750   -1.8176    2.5531 H   0  0  0  1  0  0  0  0  0  0  0  0
    8.2233   -1.2191   -6.3743 H   0  0  0  1  0  0  0  0  0  0  0  0
    6.8556   -2.3071   -6.7111 H   0  0  0  1  0  0  0  0  0  0  0  0
    8.3091   -2.9307   -5.8939 H   0  0  0  1  0  0  0  0  0  0  0  0
  1  2  1  0  0  0  0
  1 24  1  0  0  0  0
  1 25  1  0  0  0  0
  1 26  1  0  0  0  0
  2  3  1  0  0  0  0
  2 22  2  0  0  0  0
  3  4  2  0  0  0  0
  4  5  1  0  0  0  0
  4 21  1  0  0  0  0
  5  6  1  0  0  0  0
  5 27  1  0  0  0  0
  5 28  1  0  0  0  0
  6  7  1  0  0  0  0
  6 29  1  0  0  0  0
  6 30  1  0  0  0  0
  7  8  1  0  0  0  0
  7 31  1  0  0  0  0
  8  9  1  0  0  0  0
  8 14  1  0  0  0  0
  8 32  1  0  0  0  0
  9 10  2  0  0  0  0
  9 13  1  0  0  0  0
 10 11  1  0  0  0  0
 10 33  1  0  0  0  0
 11 12  1  0  0  0  0
 11 34  1  0  0  0  0
 12 13  2  0  0  0  0
 14 15  2  0  0  0  0
 14 20  1  0  0  0  0
 15 16  1  0  0  0  0
 15 35  1  0  0  0  0
 16 17  2  0  0  0  0
 16 36  1  0  0  0  0
 17 18  1  0  0  0  0
 17 19  1  0  0  0  0
 19 20  2  0  0  0  0
 19 37  1  0  0  0  0
 20 38  1  0  0  0  0
 21 22  1  0  0  0  0
 22 23  1  0  0  0  0
 23 39  1  0  0  0  0
 23 40  1  0  0  0  0
 23 41  1  0  0  0  0
M  END
> <Catalog ID>
Z2039725022

> <ClogP>
2.062

> <HBD>
2

> <Index>
16774

> <MW (desalted)>
331.411

> <PlateID>
1046298-R-G-080

> <RotBonds>
6

> <TPSA>
66.490

> <Well>
F10

$$$$
